---
name: Request a new feature for KPP-for-GEOS-Chem
about: Use this template to request a new feature for KPP-for-GEOS-Chem.
title: "[FEATURE REQUEST]"
labels: feature
assignees: ''

---

# Request a new KPP-for-GEOS-Chem feature:
